Results/stes-now/powerflow/line_summaries.csv
,active_line_losses_mw,reactive_line_losses_mvar,apparent_line_losses_mva
0,0.0511921610577435,-0.4117819656008774,0.47564985537132326
1,0.04340036454283559,-0.41816745456184135,0.4699392100700852
2,0.042551976571128275,-0.418893073085899,0.46930281953020664
3,0.04107226674659527,-0.4201817544061894,0.4683186840819319
4,0.0398737610020887,-0.421218847697365,0.46757085567602363
5,0.038335833037276515,-0.42249591015241855,0.4665433337213094
6,0.03954052331290686,-0.4214793642841213,0.4674377876710604
7,0.04346631293229704,-0.418256511550625,0.47029488746440484
8,0.04360719289629242,-0.4181704829625684,0.47041892962906084
9,0.04566799974599209,-0.4164498883919498,0.4719375960343818
10,0.054200382677467046,-0.4094866869213503,0.47814474749026825
11,0.05670330198387004,-0.4073927910679359,0.4799007335699408
12,0.061572747765368384,-0.40348454433524056,0.48357607909379424
13,0.058387512529791574,-0.4059818203797129,0.48111388510851677
14,0.06029091728327228,-0.40441232565692703,0.48240921581631285
15,0.06460142687655296,-0.40099521089522916,0.4857577358965083
16,0.06998334541904999,-0.39675097419012284,0.49020094767115613
17,0.07455433976300258,-0.3931543381020641,0.49377572368426065
18,0.067902428141993,-0.3983978833017674,0.4883486427863387
19,0.0696920487419932,-0.39694528619087194,0.4897657398253913
20,0.07226451109471144,-0.39491577788108106,0.4917884600815352
21,0.0670943564404198,-0.39907071841694236,0.48792283437327477
22,0.05973390434875827,-0.4049299912529304,0.48215240328797404
23,0.05123025372518396,-0.411835353345858,0.47588356186601366
24,0.04600689927794489,-0.41611366093235874,0.4721596745601429
25,0.04240739195711695,-0.4190578481156731,0.46952245533616643
26,0.03755617159577091,-0.42313602997289124,0.46619552187612956
27,0.03749419578656098,-0.4231532774263567,0.4660378427656349
28,0.041263263293864295,-0.4200071096506562,0.4688042527361175
29,0.04328048007723474,-0.4183622537394432,0.47013451488326957
30,0.05348063377072422,-0.4099642648152726,0.4774684345960894
31,0.06353522836951223,-0.40183868186310934,0.484991277060189
32,0.06237262395431813,-0.4027594556673547,0.4840324076384207
33,0.06993741199228597,-0.39681977794251766,0.49015517936053293
34,0.06640445294408232,-0.39958820022044306,0.4871884343235755
35,0.0657278752222207,-0.40012460057025323,0.4866617528083074
36,0.06906194493563886,-0.39755837156801044,0.48938553864293
37,0.07049611768976526,-0.39639539485088177,0.4903015204612427
38,0.06932704968249279,-0.397338697234395,0.4895835173060257
39,0.07201019275818363,-0.3951139129859821,0.4914090475050101
40,0.08257604569056033,-0.3866321091724256,0.49960047514756406
41,0.08442470261168697,-0.38514228509359244,0.500848539131205
42,0.08096389162596902,-0.38796034565695003,0.4981838879156067
43,0.08083301972914478,-0.38796141007044904,0.4977342971571528
44,0.08783087012394568,-0.3825346776680244,0.50363911267732
45,0.08112634792961251,-0.38774170089173116,0.49805048947142594
46,0.07183932088293886,-0.3950530281103748,0.4907024401202986
47,0.062215077953486464,-0.40276983792934745,0.4834734710739975
48,0.056989750994830134,-0.407025841517716,0.479742915301895
49,0.05034244700075241,-0.4124170388808219,0.4747712918187631
50,0.050253364270324966,-0.41251857453102214,0.4746987933984473
51,0.04789221658385722,-0.4144566271256593,0.47304048140051
52,0.04877078504275309,-0.41371964152007185,0.4737052954786071
53,0.050509739986828464,-0.41231478640012525,0.4748926866678982
54,0.06245739262665864,-0.4026534823618088,0.4839297228564416
55,0.07742251564522336,-0.39073707539027575,0.4956509091633712
56,0.07467597346633324,-0.39298035174775187,0.49378713749409053
57,0.07267654768947128,-0.39458898487561567,0.4923070790712497
58,0.07078171907910313,-0.3960960271641151,0.4906136124363994
59,0.06596028935123015,-0.39977766301554507,0.48672186879651835
60,0.06409846593669828,-0.401326998735905,0.4855364384805722
61,0.060635726297518705,-0.40402979252572346,0.4826092093943158
62,0.06305344767291998,-0.4020998802380329,0.4843446801526531
63,0.07050590736799929,-0.3961952001945313,0.4901972870810702
64,0.07723759784854445,-0.3907550203525382,0.4951645454222394
65,0.08293244005797773,-0.3862788161910582,0.49967740733624577
66,0.08033360067697091,-0.38845822083483683,0.49771144378919546
67,0.07785443469438529,-0.39038568774302274,0.49577890459955604
68,0.08188540556456267,-0.38726063394229904,0.49897921086141994
69,0.07749907199235594,-0.3907209284997898,0.49546129693895224
70,0.06823129995778679,-0.39808946355483765,0.4883915310697164
71,0.06080154425949991,-0.40400609409204924,0.48265777499802925
72,0.054587080635887464,-0.40897404228510864,0.4778971110525894
73,0.04764441325179132,-0.41464264137320656,0.4728213759813293
74,0.04734231449976853,-0.4148426986424202,0.4725431095754668
75,0.044016985592217305,-0.4175788447676985,0.47012239169919934
76,0.045143260831179435,-0.4166518296471376,0.4708376241037289
77,0.049949442561342455,-0.4127341953838973,0.474397053182225
78,0.061716181427597994,-0.40331631649961364,0.4833690707007222
79,0.07739623852448331,-0.3908249600527314,0.49564456441962007
80,0.07254975517496948,-0.3945231510701122,0.49167205336417497
81,0.06953300993324439,-0.39695073432010436,0.4897461388774646
82,0.0745959818991445,-0.39302684346055233,0.4938255540555249
83,0.06855015465490298,-0.39783932848752834,0.48897541096133007
84,0.06699301052721215,-0.3990187026282064,0.4875148266094787
85,0.06368453439693245,-0.4016182279521699,0.4850048198337991
86,0.06959070791142352,-0.39698231151607727,0.48963136324413004
87,0.07807053828347518,-0.3903059151840995,0.4963610439589231
88,0.08447925278372681,-0.3851657697321233,0.5011570590946942
89,0.09076161383979338,-0.38029518480630065,0.5064744664101708
90,0.08676408785734975,-0.383438719686954,0.5029481226341457
91,0.07896424094897381,-0.38946383425751363,0.4962333054224773
92,0.08069757742124825,-0.3881142474292276,0.4976367874150549
93,0.07591201057113228,-0.3919025054959241,0.49387722595512956
94,0.07111673859427842,-0.39577707172216847,0.49021052132992576
95,0.06112913207996207,-0.4037549240836271,0.4826290183546957
96,0.052344057336296754,-0.41084455582084417,0.47621253895829524
97,0.04837852792177859,-0.4140625168330153,0.4734230348056089
98,0.045718045804124294,-0.41628586266711753,0.47141307264594307
99,0.04364132709164492,-0.4180015996473168,0.46994965509532144
100,0.04402410862175617,-0.41765885962247234,0.4701965699703494
101,0.04959174455250219,-0.4131252896130063,0.4743140876095538
102,0.0604338617461694,-0.4043417233759895,0.4823329630174885
103,0.07271947665538404,-0.3944388310823337,0.49170625417617636
104,0.07496504800013613,-0.39270492774677807,0.49364694188494734
105,0.06705342631398528,-0.3989401175402355,0.4876961548983065
106,0.06530636445031293,-0.40024290206545915,0.48633367165159314
107,0.06875003033764254,-0.39750971862018797,0.4888971412827783
108,0.06549089693796449,-0.40009372714084257,0.48619043605610546
109,0.07195795686219512,-0.3950507252958608,0.49138183292148513
110,0.07829851080331024,-0.3899893694748002,0.4963446205309712
111,0.07645199359382496,-0.3913549583319216,0.4947239956663053
112,0.08518009446380748,-0.38451654963156484,0.501664794135965
113,0.0847809977914921,-0.3847895155101492,0.5011170125636597
114,0.0797963177892341,-0.38865186651536016,0.49685388119730356
115,0.07960704309263456,-0.38871291015002457,0.4964968984267027
116,0.07955568589399296,-0.3889011272342726,0.49651557223205006
117,0.0732366359124109,-0.3939531588373371,0.4917709523909178
118,0.07098335319121502,-0.3958308203203217,0.49030399412027126
119,0.06761941228410534,-0.39850380708708144,0.48783619773091247
120,0.05367645308654355,-0.4096363004331196,0.4770198012705265
121,0.05228844022797799,-0.4108889519980497,0.47626865335013485
122,0.05064662493240045,-0.41214531485042294,0.47499216890137186
123,0.049789407064119634,-0.4128785753526551,0.4744389785970395
124,0.049145573389381594,-0.4134131716902597,0.4738970492733984
125,0.05192145600555481,-0.4111819509864058,0.4759950753114941
126,0.05687468605689801,-0.4071518417819145,0.47969121728371245
127,0.06083634220293491,-0.40400772463383355,0.4826320045404512
128,0.06383936588722307,-0.4015544230398525,0.4848348480475818
129,0.0684669108761229,-0.3978365589021769,0.48839626032317307
130,0.0802852107608014,-0.3885052773444266,0.49779920807767053
131,0.08330384189772974,-0.3859703438871429,0.4997566496585274
132,0.0893684510358328,-0.38126199268372063,0.5048075691614798
133,0.08435276513729194,-0.38519957124837084,0.5007434672635427
134,0.0755033408684966,-0.39209846245478824,0.4933952292389378
135,0.08485635929727413,-0.3848398263765951,0.5012824445463642
136,0.08800860697819024,-0.3822501696579342,0.5037225780987318
137,0.09009081550514585,-0.38060391130947935,0.5052343553673307
138,0.08837206718573454,-0.3818533756110381,0.5033197286765084
139,0.08927990706960581,-0.38117193254847964,0.5041304608913525
140,0.08635888781760424,-0.38362133354614425,0.5021489905414587
141,0.08402474527317713,-0.3853797646316371,0.5001236615392721
142,0.08008996109835148,-0.38848798765172077,0.4971271431606559
143,0.07506321472114483,-0.3924964027024329,0.4932640145315981
144,0.0713934714179113,-0.3954309161261782,0.49051024832261825
145,0.06724159037919582,-0.39875322357266635,0.4873541345096854
146,0.06798765006488572,-0.39821738962379655,0.48818275035745007
147,0.06237539894203879,-0.40261361492325265,0.4835920666241058
148,0.06442576851054013,-0.40098531585241404,0.48518393492486
149,0.06765771416032555,-0.39846202213055076,0.48787507617890813
150,0.06969775446880169,-0.39677509036586345,0.48925713882522515
151,0.07097705783015675,-0.3956962837177286,0.4902449715338513
152,0.07914972653396528,-0.38930023041342876,0.496932690938918
153,0.08407340209656455,-0.3853389242933203,0.5005733935411221
154,0.09317279350852502,-0.37821672077077456,0.5079206539522547
155,0.0928130964163309,-0.3784248981118188,0.5073767125785509
156,0.09459053584351357,-0.3770824889538241,0.5090453500930839
157,0.098605414503393,-0.3739872739590755,0.5125124579786429
158,0.09851417082414432,-0.3740854917003662,0.512492476778989
159,0.10024669907161013,-0.37275722887957036,0.5136997839935693
160,0.10013288835960997,-0.37280054776807403,0.5132782346483122
161,0.10405822048399105,-0.3698403372476406,0.5166934563980881
162,0.10138339850464474,-0.3717621028604499,0.514018712344451
163,0.0996895419019741,-0.3731711415981743,0.5128163613197232
164,0.10200652070583735,-0.37149910510177203,0.5152718231690954
165,0.09012284354503147,-0.38077892191246293,0.5056223322641622
166,0.07651302592278231,-0.3914034219088651,0.4944864548073068
167,0.0670720490818738,-0.3988888198996395,0.4871370484241843
168,0.06059165395525232,-0.4041869309172456,0.4825994826891863
169,0.05553853961788985,-0.40829928703929386,0.4788424976232145
170,0.05405936074345362,-0.4094971738418068,0.47782083735068365
171,0.05388215374620655,-0.40960754345441014,0.4776069728725862
172,0.05283466673284572,-0.4103927651800775,0.4765668621326661
173,0.056266543401274745,-0.40770385630792794,0.47937194753354984
174,0.06874264325688936,-0.39771962494089214,0.4890205439566521
175,0.0837332692447858,-0.3858350040339128,0.5008238310712357
176,0.08742910628990903,-0.3829311957391599,0.5039540648441204
177,0.0802904329009187,-0.38858624487815985,0.498245979756282
178,0.08203008977271384,-0.38730198226544643,0.49971122323046413
179,0.07227715469053118,-0.3948782047549298,0.49153917397495994
180,0.06718214328028141,-0.3988300877684777,0.48765109576286564
181,0.06062099980137464,-0.40403481545542563,0.48276715083057703
182,0.06789844773127485,-0.39826093680154456,0.48816918754549743
183,0.07585871123848499,-0.3918636559089336,0.49412828702698947
184,0.09286807501179468,-0.37852444808908886,0.5078522689637188
185,0.09764202998293556,-0.3748271482199228,0.5116809879002789
186,0.08961946213336627,-0.38093197415046937,0.5044244059825885
187,0.09586840429029045,-0.3760370710104011,0.5093480833990915
188,0.09359475829699576,-0.3778712939160602,0.5077564758451732
189,0.09463330595405137,-0.3770270449344542,0.5086111929201903
190,0.08648914489935312,-0.3834863606981094,0.5022988756010264
191,0.07533354243728028,-0.39235431470260745,0.4936221060256365
192,0.0644043782275702,-0.40107441502099217,0.485325200542108
193,0.06571035697176773,-0.4000232916548141,0.4865649471847574
194,0.06445737173381133,-0.40107257990608486,0.48565891634573877
195,0.058361901818247644,-0.4059015226982678,0.4806956512219572
196,0.05898572035347403,-0.40546328945070953,0.48128859495575393
197,0.06466237754877131,-0.4008747983125812,0.48561388038544934
198,0.07871304204918636,-0.38967339907371046,0.4965425622988124
199,0.09197017430265729,-0.3792911673015222,0.5073563729109805
...
